5362422
  -OEChem-09272623443D

 63 64  0     1  0  0  0  0  0999 V2000
   -3.2310   -1.7605    1.7892 S   0  0  0  0  0  0  0  0  0  0  0  0
   -5.6767   -1.3968    0.0195 S   0  0  0  0  0  0  0  0  0  0  0  0
    0.3060    1.3752    1.4211 O   0  0  0  0  0  0  0  0  0  0  0  0
    0.6983   -1.8977    0.4912 O   0  0  0  0  0  0  0  0  0  0  0  0
    0.0449   -3.9729   -1.1005 O   0  0  0  0  0  0  0  0  0  0  0  0
    2.6720    3.4850   -0.9237 O   0  0  0  0  0  0  0  0  0  0  0  0
    1.6978    0.9829   -0.3824 N   0  0  0  0  0  0  0  0  0  0  0  0
   -0.8107   -2.8730   -0.9542 N   0  0  0  0  0  0  0  0  0  0  0  0
    3.5623    3.5214    1.2211 N   0  0  0  0  0  0  0  0  0  0  0  0
   -0.7192    0.5769   -0.6092 C   0  0  2  0  0  0  0  0  0  0  0  0
   -1.6545    1.7711   -0.9012 C   0  0  0  0  0  0  0  0  0  0  0  0
   -1.3679   -0.7123   -0.0122 C   0  0  2  0  0  0  0  0  0  0  0  0
   -2.8414    1.4794   -1.8424 C   0  0  0  0  0  0  0  0  0  0  0  0
    0.4721    1.0085    0.2570 C   0  0  0  0  0  0  0  0  0  0  0  0
   -1.9171   -0.5492    1.4158 C   0  0  0  0  0  0  0  0  0  0  0  0
   -3.6987    2.7406   -1.9917 C   0  0  0  0  0  0  0  0  0  0  0  0
   -2.3936    1.0016   -3.2248 C   0  0  0  0  0  0  0  0  0  0  0  0
   -0.3702   -1.8759   -0.1160 C   0  0  0  0  0  0  0  0  0  0  0  0
    2.9138    1.3941    0.2782 C   0  0  1  0  0  0  0  0  0  0  0  0
    4.1489    0.6839   -0.2877 C   0  0  0  0  0  0  0  0  0  0  0  0
    3.0391    2.9023    0.0944 C   0  0  0  0  0  0  0  0  0  0  0  0
    4.0678   -0.8179   -0.1610 C   0  0  0  0  0  0  0  0  0  0  0  0
   -4.6386   -0.8366    1.2607 C   0  0  0  0  0  0  0  0  0  0  0  0
    4.5621   -1.4491    0.9805 C   0  0  0  0  0  0  0  0  0  0  0  0
    3.4982   -1.5747   -1.1850 C   0  0  0  0  0  0  0  0  0  0  0  0
   -5.0419    0.3818    1.7614 C   0  0  0  0  0  0  0  0  0  0  0  0
    4.4871   -2.8370    1.0980 C   0  0  0  0  0  0  0  0  0  0  0  0
    3.4230   -2.9625   -1.0675 C   0  0  0  0  0  0  0  0  0  0  0  0
    3.7400    4.9515    1.3304 C   0  0  0  0  0  0  0  0  0  0  0  0
    3.9175   -3.5936    0.0741 C   0  0  0  0  0  0  0  0  0  0  0  0
   -6.2190    0.8615    1.1176 C   0  0  0  0  0  0  0  0  0  0  0  0
   -6.6702   -0.0082    0.1493 C   0  0  0  0  0  0  0  0  0  0  0  0
   -0.2967    0.2796   -1.5794 H   0  0  0  0  0  0  0  0  0  0  0  0
   -1.0518    2.5868   -1.3244 H   0  0  0  0  0  0  0  0  0  0  0  0
   -2.0424    2.1603    0.0489 H   0  0  0  0  0  0  0  0  0  0  0  0
   -2.2099   -0.9492   -0.6744 H   0  0  0  0  0  0  0  0  0  0  0  0
   -3.4770    0.7072   -1.3976 H   0  0  0  0  0  0  0  0  0  0  0  0
   -1.1235   -0.7277    2.1494 H   0  0  0  0  0  0  0  0  0  0  0  0
   -2.2881    0.4632    1.5919 H   0  0  0  0  0  0  0  0  0  0  0  0
   -4.0636    3.0798   -1.0163 H   0  0  0  0  0  0  0  0  0  0  0  0
   -4.5722    2.5449   -2.6227 H   0  0  0  0  0  0  0  0  0  0  0  0
   -3.1287    3.5587   -2.4451 H   0  0  0  0  0  0  0  0  0  0  0  0
   -3.2538    0.8846   -3.8929 H   0  0  0  0  0  0  0  0  0  0  0  0
   -1.8960    0.0289   -3.1675 H   0  0  0  0  0  0  0  0  0  0  0  0
   -1.7016    1.7140   -3.6863 H   0  0  0  0  0  0  0  0  0  0  0  0
    1.7390    0.7647   -1.3734 H   0  0  0  0  0  0  0  0  0  0  0  0
    2.8124    1.1621    1.3461 H   0  0  0  0  0  0  0  0  0  0  0  0
    5.0539    1.0454    0.2183 H   0  0  0  0  0  0  0  0  0  0  0  0
    4.2883    0.9476   -1.3453 H   0  0  0  0  0  0  0  0  0  0  0  0
   -1.6175   -2.8364   -1.5665 H   0  0  0  0  0  0  0  0  0  0  0  0
    3.8368    2.9561    2.0189 H   0  0  0  0  0  0  0  0  0  0  0  0
    5.0057   -0.8698    1.7859 H   0  0  0  0  0  0  0  0  0  0  0  0
    3.1127   -1.0979   -2.0820 H   0  0  0  0  0  0  0  0  0  0  0  0
   -0.3265   -4.5704   -0.4296 H   0  0  0  0  0  0  0  0  0  0  0  0
   -4.5304    0.9131    2.5545 H   0  0  0  0  0  0  0  0  0  0  0  0
    4.8710   -3.3284    1.9871 H   0  0  0  0  0  0  0  0  0  0  0  0
    2.9809   -3.5519   -1.8654 H   0  0  0  0  0  0  0  0  0  0  0  0
    3.0991    5.3133    2.1381 H   0  0  0  0  0  0  0  0  0  0  0  0
    3.4823    5.4584    0.3977 H   0  0  0  0  0  0  0  0  0  0  0  0
    4.7850    5.1470    1.5829 H   0  0  0  0  0  0  0  0  0  0  0  0
    3.8583   -4.6742    0.1656 H   0  0  0  0  0  0  0  0  0  0  0  0
   -6.7099    1.7968    1.3528 H   0  0  0  0  0  0  0  0  0  0  0  0
   -7.5355    0.1057   -0.4882 H   0  0  0  0  0  0  0  0  0  0  0  0
  1 15  1  0  0  0  0
  1 23  1  0  0  0  0
  2 23  1  0  0  0  0
  2 32  1  0  0  0  0
  3 14  2  0  0  0  0
  4 18  2  0  0  0  0
  5  8  1  0  0  0  0
  5 54  1  0  0  0  0
  6 21  2  0  0  0  0
  7 14  1  0  0  0  0
  7 19  1  0  0  0  0
  7 46  1  0  0  0  0
  8 18  1  0  0  0  0
  8 50  1  0  0  0  0
  9 21  1  0  0  0  0
  9 29  1  0  0  0  0
  9 51  1  0  0  0  0
 10 11  1  0  0  0  0
 10 12  1  0  0  0  0
 10 14  1  0  0  0  0
 10 33  1  0  0  0  0
 11 13  1  0  0  0  0
 11 34  1  0  0  0  0
 11 35  1  0  0  0  0
 12 15  1  0  0  0  0
 12 18  1  0  0  0  0
 12 36  1  0  0  0  0
 13 16  1  0  0  0  0
 13 17  1  0  0  0  0
 13 37  1  0  0  0  0
 15 38  1  0  0  0  0
 15 39  1  0  0  0  0
 16 40  1  0  0  0  0
 16 41  1  0  0  0  0
 16 42  1  0  0  0  0
 17 43  1  0  0  0  0
 17 44  1  0  0  0  0
 17 45  1  0  0  0  0
 19 20  1  0  0  0  0
 19 21  1  0  0  0  0
 19 47  1  0  0  0  0
 20 22  1  0  0  0  0
 20 48  1  0  0  0  0
 20 49  1  0  0  0  0
 22 24  2  0  0  0  0
 22 25  1  0  0  0  0
 23 26  2  0  0  0  0
 24 27  1  0  0  0  0
 24 52  1  0  0  0  0
 25 28  2  0  0  0  0
 25 53  1  0  0  0  0
 26 31  1  0  0  0  0
 26 55  1  0  0  0  0
 27 30  2  0  0  0  0
 27 56  1  0  0  0  0
 28 30  1  0  0  0  0
 28 57  1  0  0  0  0
 29 58  1  0  0  0  0
 29 59  1  0  0  0  0
 29 60  1  0  0  0  0
 30 61  1  0  0  0  0
 31 32  2  0  0  0  0
 31 62  1  0  0  0  0
 32 63  1  0  0  0  0
M  END
> <PUBCHEM_COMPOUND_CID>
5362422

> <PUBCHEM_CONFORMER_RMSD>
1.2

> <PUBCHEM_CONFORMER_DIVERSEORDER>
1
160
114
16
65
23
88
96
103
129
56
18
78
152
147
12
98
54
83
34
148
82
106
142
136
99
92
80
70
149
159
115
43
111
125
163
121
25
4
59
2
19
48
30
120
20
122
46
72
162
47
155
101
116
133
123
77
146
107
145
10
36
79
110
49
81
55
130
97
27
33
132
7
144
66
131
137
64
93
105
61
153
38
124
21
128
84
87
154
150
50
161
68
69
108
5
135
31
41
118
134
91
112
3
8
45
6
94
53
73
24
29
141
60
140
52
90
32
26
11
63
74
17
76
42
100
157
138
71
51
113
109
156
151
39
14
37
62
28
44
40
139
86
75
104
57
117
58
22
15
126
158
119
85
13
95
127
35
89
102
143
67
9

> <PUBCHEM_MMFF94_PARTIAL_CHARGES>
40
1 -0.29
10 0.06
12 0.06
14 0.57
15 0.23
18 0.57
19 0.36
2 -0.08
20 0.14
21 0.57
22 -0.14
23 0.1
24 -0.15
25 -0.15
26 -0.15
27 -0.15
28 -0.15
29 0.3
3 -0.57
30 -0.15
31 -0.15
32 -0.11
4 -0.57
46 0.37
5 -0.44
50 0.37
51 0.37
52 0.15
53 0.15
54 0.4
55 0.15
56 0.15
57 0.15
6 -0.57
61 0.15
62 0.15
63 0.15
7 -0.73
8 -0.39
9 -0.73

> <PUBCHEM_EFFECTIVE_ROTOR_COUNT>
15

> <PUBCHEM_PHARMACOPHORE_FEATURES>
11
1 3 acceptor
1 4 acceptor
1 6 acceptor
1 7 donor
1 8 donor
1 9 donor
3 1 12 15 hydrophobe
3 10 11 13 hydrophobe
3 13 16 17 hydrophobe
5 2 23 26 31 32 rings
6 22 24 25 27 28 30 rings

> <PUBCHEM_HEAVY_ATOM_COUNT>
32

> <PUBCHEM_ATOM_DEF_STEREO_COUNT>
3

> <PUBCHEM_ATOM_UDEF_STEREO_COUNT>
0

> <PUBCHEM_BOND_DEF_STEREO_COUNT>
0

> <PUBCHEM_BOND_UDEF_STEREO_COUNT>
0

> <PUBCHEM_ISOTOPIC_ATOM_COUNT>
0

> <PUBCHEM_COMPONENT_COUNT>
1

> <PUBCHEM_CACTVS_TAUTO_COUNT>
12

> <PUBCHEM_CONFORMER_ID>
0051D2F600000001

> <PUBCHEM_MMFF94_ENERGY>
68.9118

> <PUBCHEM_FEATURE_SELFOVERLAP>
56.203

> <PUBCHEM_SHAPE_FINGERPRINT>
12422481 6 18187090538078226197
12553582 1 18271808974319171982
13140716 1 18124318465860869282
13533116 47 18410863165463261961
13757389 114 16748773498580678484
13782708 43 17968664800451574987
14004853 49 17829052357457942724
14955137 171 18198062465215703242
20600515 1 17096092532026080637
22182313 1 18041267833681806693
23559900 14 18041293152392398090
25223398 141 17458624454538931727
350125 39 18335426767755811900
5171179 24 18334572396266757353
563151 74 18200586024959459248
7399639 24 18046341100818412700

> <PUBCHEM_SHAPE_MULTIPOLES>
627.82
13.08
5.12
1.99
11.89
2.6
0.89
-1.4
-3.72
-8.17
-0.25
1.86
0.78
2.75

> <PUBCHEM_SHAPE_SELFOVERLAP>
1257.041

> <PUBCHEM_SHAPE_VOLUME>
370.2

> <PUBCHEM_COORDINATE_TYPE>
2
5
10

$$$$
