155815
  -OEChem-09272623443D

 48 50  0     0  0  0  0  0  0999 V2000
   -3.0857   -0.9302   -0.3554 O   0  0  0  0  0  0  0  0  0  0  0  0
   -2.7046    1.7918   -0.4453 O   0  0  0  0  0  0  0  0  0  0  0  0
   -1.3460    4.1566    0.2241 O   0  0  0  0  0  0  0  0  0  0  0  0
   -5.6670   -1.4603    2.0734 O   0  0  0  0  0  0  0  0  0  0  0  0
   -5.5658   -0.0239    0.3086 O   0  0  0  0  0  0  0  0  0  0  0  0
    1.4314   -0.0430   -1.0525 N   0  0  0  0  0  0  0  0  0  0  0  0
   -0.6603    2.7307    1.9347 N   0  0  0  0  0  0  0  0  0  0  0  0
    0.8082    1.1264   -0.7082 C   0  0  0  0  0  0  0  0  0  0  0  0
    0.5221   -1.0764   -1.0764 C   0  0  0  0  0  0  0  0  0  0  0  0
   -0.7205   -0.5385   -0.7343 C   0  0  0  0  0  0  0  0  0  0  0  0
   -0.5246    0.8522   -0.5048 C   0  0  0  0  0  0  0  0  0  0  0  0
    2.8432   -0.1771   -1.3478 C   0  0  0  0  0  0  0  0  0  0  0  0
    1.5469    2.4040   -0.6035 C   0  0  0  0  0  0  0  0  0  0  0  0
   -1.8390   -1.3939   -0.6838 C   0  0  0  0  0  0  0  0  0  0  0  0
    0.7026   -2.4324   -1.3718 C   0  0  0  0  0  0  0  0  0  0  0  0
    3.6368   -0.4867   -0.1074 C   0  0  0  0  0  0  0  0  0  0  0  0
   -1.5048    1.8327   -0.1283 C   0  0  0  0  0  0  0  0  0  0  0  0
   -1.6736   -2.7524   -0.9768 C   0  0  0  0  0  0  0  0  0  0  0  0
    1.5790    3.1771   -1.9259 C   0  0  0  0  0  0  0  0  0  0  0  0
   -0.4213   -3.2616   -1.3153 C   0  0  0  0  0  0  0  0  0  0  0  0
    3.1715   -1.4471    0.7805 C   0  0  0  0  0  0  0  0  0  0  0  0
    4.8240    0.1920    0.1324 C   0  0  0  0  0  0  0  0  0  0  0  0
   -1.1599    3.0489    0.6994 C   0  0  0  0  0  0  0  0  0  0  0  0
    3.9072   -1.7342    1.9303 C   0  0  0  0  0  0  0  0  0  0  0  0
    5.5597   -0.0953    1.2821 C   0  0  0  0  0  0  0  0  0  0  0  0
   -3.7003   -1.5037    0.7926 C   0  0  0  0  0  0  0  0  0  0  0  0
    5.1013   -1.0585    2.1810 C   0  0  0  0  0  0  0  0  0  0  0  0
   -5.0606   -0.8971    0.9982 C   0  0  0  0  0  0  0  0  0  0  0  0
    2.9757   -0.9817   -2.0799 H   0  0  0  0  0  0  0  0  0  0  0  0
    3.1908    0.7345   -1.8428 H   0  0  0  0  0  0  0  0  0  0  0  0
    1.1655    3.0624    0.1733 H   0  0  0  0  0  0  0  0  0  0  0  0
    2.5811    2.2306   -0.2865 H   0  0  0  0  0  0  0  0  0  0  0  0
    1.6687   -2.8427   -1.6451 H   0  0  0  0  0  0  0  0  0  0  0  0
   -2.5230   -3.4305   -0.9650 H   0  0  0  0  0  0  0  0  0  0  0  0
    0.5670    3.4541   -2.2403 H   0  0  0  0  0  0  0  0  0  0  0  0
    2.1625    4.0960   -1.8111 H   0  0  0  0  0  0  0  0  0  0  0  0
    2.0293    2.5857   -2.7294 H   0  0  0  0  0  0  0  0  0  0  0  0
   -0.3164   -4.3188   -1.5453 H   0  0  0  0  0  0  0  0  0  0  0  0
    2.2618   -2.0105    0.6383 H   0  0  0  0  0  0  0  0  0  0  0  0
    5.1912    0.9434   -0.5608 H   0  0  0  0  0  0  0  0  0  0  0  0
    3.5521   -2.4855    2.6297 H   0  0  0  0  0  0  0  0  0  0  0  0
    6.4897    0.4306    1.4775 H   0  0  0  0  0  0  0  0  0  0  0  0
   -3.0872   -1.2948    1.6764 H   0  0  0  0  0  0  0  0  0  0  0  0
   -3.8364   -2.5822    0.6628 H   0  0  0  0  0  0  0  0  0  0  0  0
    5.6745   -1.2826    3.0759 H   0  0  0  0  0  0  0  0  0  0  0  0
   -0.5447    1.7712    2.2453 H   0  0  0  0  0  0  0  0  0  0  0  0
   -0.3869    3.4558    2.5895 H   0  0  0  0  0  0  0  0  0  0  0  0
   -6.5586   -1.0824    2.2305 H   0  0  0  0  0  0  0  0  0  0  0  0
  1 14  1  0  0  0  0
  1 26  1  0  0  0  0
  2 17  2  0  0  0  0
  3 23  2  0  0  0  0
  4 28  1  0  0  0  0
  4 48  1  0  0  0  0
  5 28  2  0  0  0  0
  6  8  1  0  0  0  0
  6  9  1  0  0  0  0
  6 12  1  0  0  0  0
  7 23  1  0  0  0  0
  7 46  1  0  0  0  0
  7 47  1  0  0  0  0
  8 11  2  0  0  0  0
  8 13  1  0  0  0  0
  9 10  2  0  0  0  0
  9 15  1  0  0  0  0
 10 11  1  0  0  0  0
 10 14  1  0  0  0  0
 11 17  1  0  0  0  0
 12 16  1  0  0  0  0
 12 29  1  0  0  0  0
 12 30  1  0  0  0  0
 13 19  1  0  0  0  0
 13 31  1  0  0  0  0
 13 32  1  0  0  0  0
 14 18  2  0  0  0  0
 15 20  2  0  0  0  0
 15 33  1  0  0  0  0
 16 21  2  0  0  0  0
 16 22  1  0  0  0  0
 17 23  1  0  0  0  0
 18 20  1  0  0  0  0
 18 34  1  0  0  0  0
 19 35  1  0  0  0  0
 19 36  1  0  0  0  0
 19 37  1  0  0  0  0
 20 38  1  0  0  0  0
 21 24  1  0  0  0  0
 21 39  1  0  0  0  0
 22 25  2  0  0  0  0
 22 40  1  0  0  0  0
 24 27  2  0  0  0  0
 24 41  1  0  0  0  0
 25 27  1  0  0  0  0
 25 42  1  0  0  0  0
 26 28  1  0  0  0  0
 26 43  1  0  0  0  0
 26 44  1  0  0  0  0
 27 45  1  0  0  0  0
M  END
> <PUBCHEM_COMPOUND_CID>
155815

> <PUBCHEM_CONFORMER_RMSD>
1

> <PUBCHEM_CONFORMER_DIVERSEORDER>
1
56
46
21
52
38
13
45
4
36
54
35
42
30
51
20
28
12
11
58
50
43
55
22
24
47
9
29
60
18
14
62
57
23
41
53
40
48
16
44
33
15
63
32
3
10
37
7
31
25
59
34
64
26
19
17
8
61
27
5
2
39
49
6

> <PUBCHEM_MMFF94_PARTIAL_CHARGES>
37
1 -0.36
11 -0.09
12 0.4
13 0.18
14 0.08
15 -0.15
16 -0.14
17 0.66
18 -0.15
2 -0.57
20 -0.15
21 -0.15
22 -0.15
23 0.63
24 -0.15
25 -0.15
26 0.34
27 -0.15
28 0.66
3 -0.57
33 0.15
34 0.15
38 0.15
39 0.15
4 -0.65
40 0.15
41 0.15
42 0.15
45 0.15
46 0.37
47 0.37
48 0.5
5 -0.57
6 0.05
7 -0.8
8 -0.33
9 -0.15

> <PUBCHEM_EFFECTIVE_ROTOR_COUNT>
8

> <PUBCHEM_PHARMACOPHORE_FEATURES>
12
1 1 acceptor
1 19 hydrophobe
1 2 acceptor
1 3 acceptor
1 4 acceptor
1 5 acceptor
1 6 cation
1 7 donor
3 4 5 28 anion
5 6 8 9 10 11 rings
6 16 21 22 24 25 27 rings
6 9 10 14 15 18 20 rings

> <PUBCHEM_HEAVY_ATOM_COUNT>
28

> <PUBCHEM_ATOM_DEF_STEREO_COUNT>
0

> <PUBCHEM_ATOM_UDEF_STEREO_COUNT>
0

> <PUBCHEM_BOND_DEF_STEREO_COUNT>
0

> <PUBCHEM_BOND_UDEF_STEREO_COUNT>
0

> <PUBCHEM_ISOTOPIC_ATOM_COUNT>
0

> <PUBCHEM_COMPONENT_COUNT>
1

> <PUBCHEM_CACTVS_TAUTO_COUNT>
2

> <PUBCHEM_CONFORMER_ID>
000260A700000001

> <PUBCHEM_MMFF94_ENERGY>
68.5447

> <PUBCHEM_FEATURE_SELFOVERLAP>
61.058

> <PUBCHEM_SHAPE_FINGERPRINT>
10074138 170 17755551903310777488
10162869 55 18130795590841143787
10693767 8 12396849090964005185
1100329 8 18267022945483459766
11578080 2 15984552229440609182
11595378 159 18410570652789742106
12422481 6 18268156370415604795
12553582 1 18411699924087981606
12633257 1 17846203506057977546
12788726 201 18337684069691537776
13140716 1 18196936784241767510
13383661 66 15864645972204569154
13540713 5 17980198913333707383
13583140 156 17676756652352028855
14022347 108 18267328541133791654
14178342 30 18124323713530312980
14790565 3 18126314014772371525
15420108 30 17414151640088878924
15475509 35 17241052131609610363
16728300 4 17896584116601275659
19319366 153 17610636575485283796
20510252 161 18130785620981800548
20600515 1 17488750110914176257
20775438 99 11820426855426236098
21033648 29 17917704661159696626
21421861 104 18263647427917534880
22182313 1 18198630929986592527
25147074 1 18053098711930308255
2748010 2 18053957151306903255
2838139 119 14548738399977747954
3886686 26 17398099461734469762
392239 28 17846769711221802961
394222 165 17973465461243819660
4058900 60 17252869867026213428
469060 322 18271822193780194713
484985 159 16086685598288794474
5171179 24 17697607584713818367
56616090 284 11963388531245208547
58260988 647 15357694141516782224
5951187 136 14040723170485241659
6004065 56 18130776889951591485
653340 110 17986122811891698633
9981440 41 17840283559043692139

> <PUBCHEM_SHAPE_MULTIPOLES>
536.92
9.89
4.04
1.87
0.85
3.04
-0.58
-4.75
-7.74
1.73
0.69
-0.78
-0.35
-1.09

> <PUBCHEM_SHAPE_SELFOVERLAP>
1168.311

> <PUBCHEM_SHAPE_VOLUME>
293

> <PUBCHEM_COORDINATE_TYPE>
2
5
10

$$$$
